Circuit: * C:\Users\Zwivh\OneDrive - University of Cape Town\4th Year\2nd_Semester\2024\EEE3094S\github\EEE3094S\labs\LAB 2\K_Circuit.asc

Direct Newton iteration failed to find .op point.  (Use ".option noopiter" to skip.)
Starting Gmin stepping
Gmin = 10
Gmin = 1.07374
Gmin = 0.115292
Gmin = 0.0123794
Gmin = 0.00132923
Gmin = 0.000142725
Gmin = 1.5325e-005
Gmin = 1.6455e-006
Gmin = 1.76685e-007
Gmin = 1.89714e-008
Gmin = 2.03704e-009
Gmin = 2.18725e-010
Gmin = 2.34854e-011
Gmin = 2.52173e-012
Gmin = 2.70769e-013
Gmin = 0
Gmin stepping succeeded in finding the operating point.


Date: Thu Oct 03 21:41:31 2024
Total elapsed time: 0.280 seconds.

tnom = 27
temp = 27
method = modified trap
totiter = 2493
traniter = 2096
tranpoints = 1049
accept = 1049
rejected = 0
matrix size = 24
fillins = 8
solver = Normal
Thread vector: 37.0/9.1[2] 3.0/7.1[1] 18.1/7.6[2] 0.2/0.9[1]  2592/500
Matrix Compiler1: 1.68 KB object code size  0.7/0.8/[0.2]
Matrix Compiler2: 2.64 KB object code size  0.6/0.6/[0.3]

